/*--------------------------------*- C++ -*----------------------------------*\
| =========                 |                                                 |
| \\      /  F ield         | OpenFOAM: The Open Source CFD Toolbox           |
|  \\    /   O peration     | Version:  v1812                                 |
|   \\  /    A nd           | Web:      www.OpenFOAM.com                      |
|    \\/     M anipulation  |                                                 |
\*---------------------------------------------------------------------------*/
FoamFile
{
    version     2.0;
    format      ascii;
    class       dictionary;
    object      dynamicMeshDict;
}
// * * * * * * * * * * * * * * * * * * * * * * * * * * * * * * * * * * * * * //

dynamicFvMesh       dynamicOversetFvMesh;

//motionSolverLibs ( "libfvMotionSolvers.so" );
//
//solver          displacementLaplacian;
//
//displacementLaplacianCoeffs
//{
//    diffusivity     uniform 1;
//}

solver          multiSolidBodyMotionSolver;

multiSolidBodyMotionSolverCoeffs
{
    vaneZone
    {
        solidBodyMotionFunction oscillatingLinearMotion;
        oscillatingLinearMotionCoeffs
        {
            
            amplitude        (0 -0.1 0);
            omega       2.0;
        }
    }
}

// ************************************************************************* //
